large_scale.glm
//Input feeder information for IEEE 13 node with different cases.
//Started on 10/21/09. This version created 15-Oct-2012 15:43:30.

clock {
     timezone PST+8PDT;
     starttime '2001-06-25 14:00:00';
     stoptime '2001-06-26 14:10:00';
}

#set tmp=../test_markets_controller_cooling_deadband_matching_period
#setenv GRIDLABD=../../../core
#define stylesheet=http://gridlab-d.svn.sourceforge.net/viewvc/gridlab-d/trunk/core/gridlabd-2_0
module tape;
module climate;
module residential {
     implicit_enduses NONE;
};
module market;

module powerflow {
     solver_method NR;
     NR_iteration_limit 50;
};

    object climate {
	name "Yakima WA";
	tmyfile "WA-Yakima.tmy2";
}
class auction {
    double current_price_mean_1h;
    double current_price_stdev_1h;
}
object auction {
    name Market_1;
    special_mode NONE;
    unit kW;
     parent meter_1;
    period 3600;
    init_price 100;
    init_stdev 0;
    fixed_price 50;
    warmup 0;
    town_factory seller1;
    stand_by_buyer buyer1;
    object stub_bidder{
        name seller1;
        role SELLER;
        bid_period 3600;
        market Market_1;
        market_second Market_second;
        price 50;
        quantity 50;
        count 10000;
     };
    object stub_bidder{
        name buyer1;
        role BUYER;
        bid_period 3600;
        market Market_second;
       market_second Market_second;
        price 0;
        quantity 0;
        count 10000;
     };
  object multi_recorder {
	property current_market.clearing_price,current_market.clearing_quantity,house_control_11:bid_quantity,heat_control_11:bid_quantity,house_control_12:bid_quantity,heat_control_12:bid_quantity,house_control_13:bid_quantity,heat_control_13:bid_quantity,house_control_14:bid_quantity,heat_control_14:bid_quantity,house_control_15:bid_quantity,heat_control_15:bid_quantity,house_control_16:bid_quantity,heat_control_16:bid_quantity,house_control_17:bid_quantity,heat_control_17:bid_quantity,house_control_18:bid_quantity,heat_control_18:bid_quantity,house_control_19:bid_quantity,heat_control_19:bid_quantity,house_control_110:bid_quantity,heat_control_110:bid_quantity;
	file "Market_1.csv";
	interval 3600;
	limit 168;
};
}

object auction {
    name Market_2;
    special_mode NONE;
    unit kW;
     parent meter_2;
    period 3600;
    init_price 100;
    init_stdev 0;
    fixed_price 50;
    warmup 0;
    town_factory seller2;
    stand_by_buyer buyer2;
    object stub_bidder{
        name seller2;
        role SELLER;
        bid_period 3600;
        market Market_2;
        market_second Market_second;
        price 50;
        quantity 10;
        count 10000;
     };
    object stub_bidder{
        name buyer2;
        role BUYER;
        bid_period 3600;
        market Market_second;
       market_second Market_second;
        price 0;
        quantity 0;
        count 10000;
     };
  object multi_recorder {
	property current_market.clearing_price,current_market.clearing_quantity,house_control_21:bid_quantity,house_control_22:bid_quantity,house_control_23:bid_quantity,house_control_24:bid_quantity,house_control_25:bid_quantity,house_control_26:bid_quantity,house_control_27:bid_quantity,house_control_28:bid_quantity,house_control_29:bid_quantity,house_control_210:bid_quantity,	file "Market_2.csv";
	interval 3600;
	limit 168;
};
}

object auction {
    name Market_3;
    special_mode NONE;
    unit kW;
     parent meter_3;
    period 3600;
    init_price 100;
    init_stdev 0;
    fixed_price 50;
    warmup 0;
    town_factory seller3;
    stand_by_buyer buyer3;
    object stub_bidder{
        name seller3;
        role SELLER;
        bid_period 3600;
        market Market_3;
        market_second Market_second;
        price 50;
        quantity 4;
        count 10000;
     };
    object stub_bidder{
        name buyer3;
        role BUYER;
        bid_period 3600;
        market Market_second;
       market_second Market_second;
        price 0;
        quantity 0;
        count 10000;
     };
  object multi_recorder {
	property current_market.clearing_price,current_market.clearing_quantity,house_control_31:bid_quantity,heat_control_31:bid_quantity,house_control_32:bid_quantity,heat_control_32:bid_quantity,house_control_33:bid_quantity,heat_control_33:bid_quantity,house_control_34:bid_quantity,heat_control_34:bid_quantity,house_control_35:bid_quantity,heat_control_35:bid_quantity,house_control_36:bid_quantity,heat_control_36:bid_quantity,house_control_37:bid_quantity,heat_control_37:bid_quantity,house_control_38:bid_quantity,heat_control_38:bid_quantity,house_control_39:bid_quantity,heat_control_39:bid_quantity,house_control_310:bid_quantity,heat_control_310:bid_quantity;
	file "Market_3.csv";
	interval 3600;
	limit 168;
};
}

object auction {
    name Market_4;
    special_mode NONE;
    unit kW;
     parent meter_4;
    period 3600;
    init_price 100;
    init_stdev 0;
    fixed_price 50;
    warmup 0;
    town_factory seller4;
    stand_by_buyer buyer4;
    object stub_bidder{
        name seller4;
        role SELLER;
        bid_period 3600;
        market Market_4;
        market_second Market_second;
        price 50;
        quantity 50;
        count 10000;
     };
    object stub_bidder{
        name buyer4;
        role BUYER;
        bid_period 3600;
        market Market_second;
       market_second Market_second;
        price 0;
        quantity 0;
        count 10000;
     };
  object multi_recorder {
	property current_market.clearing_price,current_market.clearing_quantity,house_control_41:bid_quantity,house_control_42:bid_quantity,house_control_43:bid_quantity,house_control_44:bid_quantity,house_control_45:bid_quantity,house_control_46:bid_quantity,house_control_47:bid_quantity,house_control_48:bid_quantity,house_control_49:bid_quantity,house_control_410:bid_quantity,	file "Market_4.csv";
	interval 3600;
	limit 168;
};
}

object auction {
    name Market_second;
    special_mode NONE;
    unit kW;
    period 3600;
    init_price 30;
    init_stdev 5;
    warmup 0;
    fixed_price 50;
    object multi_recorder {
 	property controller_1:bid_quantity,controller_2:bid_quantity,controller_3:bid_quantity,controller_4:bid_quantity,current_market.clearing_price,current_market.clearing_quantity;
 	file "market_second.csv";
 	interval 3600;
 	limit 168;
 	};
}

//Configurations

object triplex_node {
	name node_1;
	nominal_voltage 120;
	phases AS;
	bustype SWING;
}
object triplex_line_configuration {
     name TPLconfig;
     conductor_1 object triplex_line_conductor {
          resistance 0.97;
         geometric_mean_radius 0.0111;
     };
     conductor_2 object triplex_line_conductor {
          resistance 0.97;
          geometric_mean_radius 0.0111;
     };
     conductor_N object triplex_line_conductor {
          resistance 0.97;
          geometric_mean_radius 0.0111;
     };
     insulation_thickness 0.08;
     diameter 0.368;
}
 object triplex_line {
	configuration TPLconfig;
	length 50;
	phases AS;
	from node_1;
	name trpl_1;
	to meter_1;	
}
 object triplex_line {
	configuration TPLconfig;
	length 50;
	phases AS;
	from node_1;
	name trpl_2;
	to meter_2;	
}
 object triplex_line {
	configuration TPLconfig;
	length 50;
	phases AS;
	from node_1;
	name trpl_3;
	to meter_3;	
}
 object triplex_line {
	configuration TPLconfig;
	length 50;
	phases AS;
	from node_1;
	name trpl_4;
	to meter_4;	
}
    object triplex_meter {
	phases AS;
	nominal_voltage 120;
	name meter_1;
	market_c Market_second;
	price 50;
		object house {
			name house_11;
			weather "Yakima WA";
			cooling_setpoint 70;
			heating_setpoint 65;
			air_temperature 72;
			object controller {
				name house_control_11;
				market Market_1;
			    market_second Market_second;
				bid_mode ON;
				control_mode DOUBLE_RAMP;
				resolve_mode DEADBAND;
				// slider_setting_heat 1;
				// slider_setting_cool 1;
				heating_base_setpoint 65;
				cooling_base_setpoint 70;
				period 3600;
				average_target current_price_mean_1h;
				standard_deviation_target current_price_stdev_1h;
				target air_temperature;
				heating_setpoint heating_setpoint;
				heating_demand heating_demand;
				cooling_setpoint cooling_setpoint;
				cooling_demand cooling_demand;
				deadband thermostat_deadband;
				total total_load;
				load hvac_load;
				heating_range_high 4;
				heating_range_low -5;
				heating_ramp_high -2;
				heating_ramp_low -2;
				cooling_range_high 5;
				cooling_range_low -4;
				cooling_ramp_high 2;
				cooling_ramp_low 3;
			};
		};
      object house{	
		name house2_11;
		object waterheater {
		name water_11;
		temperature 92;
		tank_setpoint 96;
		location INSIDE;
		water_demand 0.2;
		object controller {
			name heat_control_11;
			market Market_1;
			market_second Market_second;
			bid_mode ON;	
			period 3600;
			average_target current_price_mean_1h;
			standard_deviation_target current_price_stdev_1h;	
			control_mode RAMP;
			target temperature;
			setpoint tank_setpoint;
			demand heating_element_capacity;
			total actual_load;
			load  actual_load;
			slider_setting 0; //set to 0 or ramps will be overwritten
			ramp_low -2;
			ramp_high -2;
			range_low -5;
			range_high 0;
		};	
		};
};
		object house {
			name house_12;
			weather "Yakima WA";
			cooling_setpoint 70;
			heating_setpoint 65;
			air_temperature 72;
			object controller {
				name house_control_12;
				market Market_1;
			    market_second Market_second;
				bid_mode ON;
				control_mode DOUBLE_RAMP;
				resolve_mode DEADBAND;
				// slider_setting_heat 1;
				// slider_setting_cool 1;
				heating_base_setpoint 65;
				cooling_base_setpoint 70;
				period 3600;
				average_target current_price_mean_1h;
				standard_deviation_target current_price_stdev_1h;
				target air_temperature;
				heating_setpoint heating_setpoint;
				heating_demand heating_demand;
				cooling_setpoint cooling_setpoint;
				cooling_demand cooling_demand;
				deadband thermostat_deadband;
				total total_load;
				load hvac_load;
				heating_range_high 4;
				heating_range_low -5;
				heating_ramp_high -2;
				heating_ramp_low -2;
				cooling_range_high 5;
				cooling_range_low -4;
				cooling_ramp_high 2;
				cooling_ramp_low 3;
			};
		};
      object house{	
		name house2_12;
		object waterheater {
		name water_12;
		temperature 92;
		tank_setpoint 96;
		location INSIDE;
		water_demand 0.2;
		object controller {
			name heat_control_12;
			market Market_1;
			market_second Market_second;
			bid_mode ON;	
			period 3600;
			average_target current_price_mean_1h;
			standard_deviation_target current_price_stdev_1h;	
			control_mode RAMP;
			target temperature;
			setpoint tank_setpoint;
			demand heating_element_capacity;
			total actual_load;
			load  actual_load;
			slider_setting 0; //set to 0 or ramps will be overwritten
			ramp_low -2;
			ramp_high -2;
			range_low -5;
			range_high 0;
		};	
		};
};
		object house {
			name house_13;
			weather "Yakima WA";
			cooling_setpoint 70;
			heating_setpoint 65;
			air_temperature 72;
			object controller {
				name house_control_13;
				market Market_1;
			    market_second Market_second;
				bid_mode ON;
				control_mode DOUBLE_RAMP;
				resolve_mode DEADBAND;
				// slider_setting_heat 1;
				// slider_setting_cool 1;
				heating_base_setpoint 65;
				cooling_base_setpoint 70;
				period 3600;
				average_target current_price_mean_1h;
				standard_deviation_target current_price_stdev_1h;
				target air_temperature;
				heating_setpoint heating_setpoint;
				heating_demand heating_demand;
				cooling_setpoint cooling_setpoint;
				cooling_demand cooling_demand;
				deadband thermostat_deadband;
				total total_load;
				load hvac_load;
				heating_range_high 4;
				heating_range_low -5;
				heating_ramp_high -2;
				heating_ramp_low -2;
				cooling_range_high 5;
				cooling_range_low -4;
				cooling_ramp_high 2;
				cooling_ramp_low 3;
			};
		};
      object house{	
		name house2_13;
		object waterheater {
		name water_13;
		temperature 92;
		tank_setpoint 96;
		location INSIDE;
		water_demand 0.2;
		object controller {
			name heat_control_13;
			market Market_1;
			market_second Market_second;
			bid_mode ON;	
			period 3600;
			average_target current_price_mean_1h;
			standard_deviation_target current_price_stdev_1h;	
			control_mode RAMP;
			target temperature;
			setpoint tank_setpoint;
			demand heating_element_capacity;
			total actual_load;
			load  actual_load;
			slider_setting 0; //set to 0 or ramps will be overwritten
			ramp_low -2;
			ramp_high -2;
			range_low -5;
			range_high 0;
		};	
		};
};
		object house {
			name house_14;
			weather "Yakima WA";
			cooling_setpoint 70;
			heating_setpoint 65;
			air_temperature 72;
			object controller {
				name house_control_14;
				market Market_1;
			    market_second Market_second;
				bid_mode ON;
				control_mode DOUBLE_RAMP;
				resolve_mode DEADBAND;
				// slider_setting_heat 1;
				// slider_setting_cool 1;
				heating_base_setpoint 65;
				cooling_base_setpoint 70;
				period 3600;
				average_target current_price_mean_1h;
				standard_deviation_target current_price_stdev_1h;
				target air_temperature;
				heating_setpoint heating_setpoint;
				heating_demand heating_demand;
				cooling_setpoint cooling_setpoint;
				cooling_demand cooling_demand;
				deadband thermostat_deadband;
				total total_load;
				load hvac_load;
				heating_range_high 4;
				heating_range_low -5;
				heating_ramp_high -2;
				heating_ramp_low -2;
				cooling_range_high 5;
				cooling_range_low -4;
				cooling_ramp_high 2;
				cooling_ramp_low 3;
			};
		};
      object house{	
		name house2_14;
		object waterheater {
		name water_14;
		temperature 92;
		tank_setpoint 96;
		location INSIDE;
		water_demand 0.2;
		object controller {
			name heat_control_14;
			market Market_1;
			market_second Market_second;
			bid_mode ON;	
			period 3600;
			average_target current_price_mean_1h;
			standard_deviation_target current_price_stdev_1h;	
			control_mode RAMP;
			target temperature;
			setpoint tank_setpoint;
			demand heating_element_capacity;
			total actual_load;
			load  actual_load;
			slider_setting 0; //set to 0 or ramps will be overwritten
			ramp_low -2;
			ramp_high -2;
			range_low -5;
			range_high 0;
		};	
		};
};
		object house {
			name house_15;
			weather "Yakima WA";
			cooling_setpoint 70;
			heating_setpoint 65;
			air_temperature 72;
			object controller {
				name house_control_15;
				market Market_1;
			    market_second Market_second;
				bid_mode ON;
				control_mode DOUBLE_RAMP;
				resolve_mode DEADBAND;
				// slider_setting_heat 1;
				// slider_setting_cool 1;
				heating_base_setpoint 65;
				cooling_base_setpoint 70;
				period 3600;
				average_target current_price_mean_1h;
				standard_deviation_target current_price_stdev_1h;
				target air_temperature;
				heating_setpoint heating_setpoint;
				heating_demand heating_demand;
				cooling_setpoint cooling_setpoint;
				cooling_demand cooling_demand;
				deadband thermostat_deadband;
				total total_load;
				load hvac_load;
				heating_range_high 4;
				heating_range_low -5;
				heating_ramp_high -2;
				heating_ramp_low -2;
				cooling_range_high 5;
				cooling_range_low -4;
				cooling_ramp_high 2;
				cooling_ramp_low 3;
			};
		};
      object house{	
		name house2_15;
		object waterheater {
		name water_15;
		temperature 92;
		tank_setpoint 96;
		location INSIDE;
		water_demand 0.2;
		object controller {
			name heat_control_15;
			market Market_1;
			market_second Market_second;
			bid_mode ON;	
			period 3600;
			average_target current_price_mean_1h;
			standard_deviation_target current_price_stdev_1h;	
			control_mode RAMP;
			target temperature;
			setpoint tank_setpoint;
			demand heating_element_capacity;
			total actual_load;
			load  actual_load;
			slider_setting 0; //set to 0 or ramps will be overwritten
			ramp_low -2;
			ramp_high -2;
			range_low -5;
			range_high 0;
		};	
		};
};
		object house {
			name house_16;
			weather "Yakima WA";
			cooling_setpoint 70;
			heating_setpoint 65;
			air_temperature 72;
			object controller {
				name house_control_16;
				market Market_1;
			    market_second Market_second;
				bid_mode ON;
				control_mode DOUBLE_RAMP;
				resolve_mode DEADBAND;
				// slider_setting_heat 1;
				// slider_setting_cool 1;
				heating_base_setpoint 65;
				cooling_base_setpoint 70;
				period 3600;
				average_target current_price_mean_1h;
				standard_deviation_target current_price_stdev_1h;
				target air_temperature;
				heating_setpoint heating_setpoint;
				heating_demand heating_demand;
				cooling_setpoint cooling_setpoint;
				cooling_demand cooling_demand;
				deadband thermostat_deadband;
				total total_load;
				load hvac_load;
				heating_range_high 4;
				heating_range_low -5;
				heating_ramp_high -2;
				heating_ramp_low -2;
				cooling_range_high 5;
				cooling_range_low -4;
				cooling_ramp_high 2;
				cooling_ramp_low 3;
			};
		};
      object house{	
		name house2_16;
		object waterheater {
		name water_16;
		temperature 92;
		tank_setpoint 96;
		location INSIDE;
		water_demand 0.2;
		object controller {
			name heat_control_16;
			market Market_1;
			market_second Market_second;
			bid_mode ON;	
			period 3600;
			average_target current_price_mean_1h;
			standard_deviation_target current_price_stdev_1h;	
			control_mode RAMP;
			target temperature;
			setpoint tank_setpoint;
			demand heating_element_capacity;
			total actual_load;
			load  actual_load;
			slider_setting 0; //set to 0 or ramps will be overwritten
			ramp_low -2;
			ramp_high -2;
			range_low -5;
			range_high 0;
		};	
		};
};
		object house {
			name house_17;
			weather "Yakima WA";
			cooling_setpoint 70;
			heating_setpoint 65;
			air_temperature 72;
			object controller {
				name house_control_17;
				market Market_1;
			    market_second Market_second;
				bid_mode ON;
				control_mode DOUBLE_RAMP;
				resolve_mode DEADBAND;
				// slider_setting_heat 1;
				// slider_setting_cool 1;
				heating_base_setpoint 65;
				cooling_base_setpoint 70;
				period 3600;
				average_target current_price_mean_1h;
				standard_deviation_target current_price_stdev_1h;
				target air_temperature;
				heating_setpoint heating_setpoint;
				heating_demand heating_demand;
				cooling_setpoint cooling_setpoint;
				cooling_demand cooling_demand;
				deadband thermostat_deadband;
				total total_load;
				load hvac_load;
				heating_range_high 4;
				heating_range_low -5;
				heating_ramp_high -2;
				heating_ramp_low -2;
				cooling_range_high 5;
				cooling_range_low -4;
				cooling_ramp_high 2;
				cooling_ramp_low 3;
			};
		};
      object house{	
		name house2_17;
		object waterheater {
		name water_17;
		temperature 92;
		tank_setpoint 96;
		location INSIDE;
		water_demand 0.2;
		object controller {
			name heat_control_17;
			market Market_1;
			market_second Market_second;
			bid_mode ON;	
			period 3600;
			average_target current_price_mean_1h;
			standard_deviation_target current_price_stdev_1h;	
			control_mode RAMP;
			target temperature;
			setpoint tank_setpoint;
			demand heating_element_capacity;
			total actual_load;
			load  actual_load;
			slider_setting 0; //set to 0 or ramps will be overwritten
			ramp_low -2;
			ramp_high -2;
			range_low -5;
			range_high 0;
		};	
		};
};
		object house {
			name house_18;
			weather "Yakima WA";
			cooling_setpoint 70;
			heating_setpoint 65;
			air_temperature 72;
			object controller {
				name house_control_18;
				market Market_1;
			    market_second Market_second;
				bid_mode ON;
				control_mode DOUBLE_RAMP;
				resolve_mode DEADBAND;
				// slider_setting_heat 1;
				// slider_setting_cool 1;
				heating_base_setpoint 65;
				cooling_base_setpoint 70;
				period 3600;
				average_target current_price_mean_1h;
				standard_deviation_target current_price_stdev_1h;
				target air_temperature;
				heating_setpoint heating_setpoint;
				heating_demand heating_demand;
				cooling_setpoint cooling_setpoint;
				cooling_demand cooling_demand;
				deadband thermostat_deadband;
				total total_load;
				load hvac_load;
				heating_range_high 4;
				heating_range_low -5;
				heating_ramp_high -2;
				heating_ramp_low -2;
				cooling_range_high 5;
				cooling_range_low -4;
				cooling_ramp_high 2;
				cooling_ramp_low 3;
			};
		};
      object house{	
		name house2_18;
		object waterheater {
		name water_18;
		temperature 92;
		tank_setpoint 96;
		location INSIDE;
		water_demand 0.2;
		object controller {
			name heat_control_18;
			market Market_1;
			market_second Market_second;
			bid_mode ON;	
			period 3600;
			average_target current_price_mean_1h;
			standard_deviation_target current_price_stdev_1h;	
			control_mode RAMP;
			target temperature;
			setpoint tank_setpoint;
			demand heating_element_capacity;
			total actual_load;
			load  actual_load;
			slider_setting 0; //set to 0 or ramps will be overwritten
			ramp_low -2;
			ramp_high -2;
			range_low -5;
			range_high 0;
		};	
		};
};
		object house {
			name house_19;
			weather "Yakima WA";
			cooling_setpoint 70;
			heating_setpoint 65;
			air_temperature 72;
			object controller {
				name house_control_19;
				market Market_1;
			    market_second Market_second;
				bid_mode ON;
				control_mode DOUBLE_RAMP;
				resolve_mode DEADBAND;
				// slider_setting_heat 1;
				// slider_setting_cool 1;
				heating_base_setpoint 65;
				cooling_base_setpoint 70;
				period 3600;
				average_target current_price_mean_1h;
				standard_deviation_target current_price_stdev_1h;
				target air_temperature;
				heating_setpoint heating_setpoint;
				heating_demand heating_demand;
				cooling_setpoint cooling_setpoint;
				cooling_demand cooling_demand;
				deadband thermostat_deadband;
				total total_load;
				load hvac_load;
				heating_range_high 4;
				heating_range_low -5;
				heating_ramp_high -2;
				heating_ramp_low -2;
				cooling_range_high 5;
				cooling_range_low -4;
				cooling_ramp_high 2;
				cooling_ramp_low 3;
			};
		};
      object house{	
		name house2_19;
		object waterheater {
		name water_19;
		temperature 92;
		tank_setpoint 96;
		location INSIDE;
		water_demand 0.2;
		object controller {
			name heat_control_19;
			market Market_1;
			market_second Market_second;
			bid_mode ON;	
			period 3600;
			average_target current_price_mean_1h;
			standard_deviation_target current_price_stdev_1h;	
			control_mode RAMP;
			target temperature;
			setpoint tank_setpoint;
			demand heating_element_capacity;
			total actual_load;
			load  actual_load;
			slider_setting 0; //set to 0 or ramps will be overwritten
			ramp_low -2;
			ramp_high -2;
			range_low -5;
			range_high 0;
		};	
		};
};
		object house {
			name house_110;
			weather "Yakima WA";
			cooling_setpoint 70;
			heating_setpoint 65;
			air_temperature 72;
			object controller {
				name house_control_110;
				market Market_1;
			    market_second Market_second;
				bid_mode ON;
				control_mode DOUBLE_RAMP;
				resolve_mode DEADBAND;
				// slider_setting_heat 1;
				// slider_setting_cool 1;
				heating_base_setpoint 65;
				cooling_base_setpoint 70;
				period 3600;
				average_target current_price_mean_1h;
				standard_deviation_target current_price_stdev_1h;
				target air_temperature;
				heating_setpoint heating_setpoint;
				heating_demand heating_demand;
				cooling_setpoint cooling_setpoint;
				cooling_demand cooling_demand;
				deadband thermostat_deadband;
				total total_load;
				load hvac_load;
				heating_range_high 4;
				heating_range_low -5;
				heating_ramp_high -2;
				heating_ramp_low -2;
				cooling_range_high 5;
				cooling_range_low -4;
				cooling_ramp_high 2;
				cooling_ramp_low 3;
			};
		};
      object house{	
		name house2_110;
		object waterheater {
		name water_110;
		temperature 92;
		tank_setpoint 96;
		location INSIDE;
		water_demand 0.2;
		object controller {
			name heat_control_110;
			market Market_1;
			market_second Market_second;
			bid_mode ON;	
			period 3600;
			average_target current_price_mean_1h;
			standard_deviation_target current_price_stdev_1h;	
			control_mode RAMP;
			target temperature;
			setpoint tank_setpoint;
			demand heating_element_capacity;
			total actual_load;
			load  actual_load;
			slider_setting 0; //set to 0 or ramps will be overwritten
			ramp_low -2;
			ramp_high -2;
			range_low -5;
			range_high 0;
		};	
		};
};
		object house {
			name house_111;
			weather "Yakima WA";
			cooling_setpoint 70;
			heating_setpoint 65;
			air_temperature 72;
			object controller {
				name house_control_111;
				market Market_1;
			    market_second Market_second;
				bid_mode ON;
				control_mode DOUBLE_RAMP;
				resolve_mode DEADBAND;
				// slider_setting_heat 1;
				// slider_setting_cool 1;
				heating_base_setpoint 65;
				cooling_base_setpoint 70;
				period 3600;
				average_target current_price_mean_1h;
				standard_deviation_target current_price_stdev_1h;
				target air_temperature;
				heating_setpoint heating_setpoint;
				heating_demand heating_demand;
				cooling_setpoint cooling_setpoint;
				cooling_demand cooling_demand;
				deadband thermostat_deadband;
				total total_load;
				load hvac_load;
				heating_range_high 4;
				heating_range_low -5;
				heating_ramp_high -2;
				heating_ramp_low -2;
				cooling_range_high 5;
				cooling_range_low -4;
				cooling_ramp_high 2;
				cooling_ramp_low 3;
			};
		};
      object house{	
		name house2_111;
		object waterheater {
		name water_111;
		temperature 92;
		tank_setpoint 96;
		location INSIDE;
		water_demand 0.2;
		object controller {
			name heat_control_111;
			market Market_1;
			market_second Market_second;
			bid_mode ON;	
			period 3600;
			average_target current_price_mean_1h;
			standard_deviation_target current_price_stdev_1h;	
			control_mode RAMP;
			target temperature;
			setpoint tank_setpoint;
			demand heating_element_capacity;
			total actual_load;
			load  actual_load;
			slider_setting 0; //set to 0 or ramps will be overwritten
			ramp_low -2;
			ramp_high -2;
			range_low -5;
			range_high 0;
		};	
		};
};
		object house {
			name house_112;
			weather "Yakima WA";
			cooling_setpoint 70;
			heating_setpoint 65;
			air_temperature 72;
			object controller {
				name house_control_112;
				market Market_1;
			    market_second Market_second;
				bid_mode ON;
				control_mode DOUBLE_RAMP;
				resolve_mode DEADBAND;
				// slider_setting_heat 1;
				// slider_setting_cool 1;
				heating_base_setpoint 65;
				cooling_base_setpoint 70;
				period 3600;
				average_target current_price_mean_1h;
				standard_deviation_target current_price_stdev_1h;
				target air_temperature;
				heating_setpoint heating_setpoint;
				heating_demand heating_demand;
				cooling_setpoint cooling_setpoint;
				cooling_demand cooling_demand;
				deadband thermostat_deadband;
				total total_load;
				load hvac_load;
				heating_range_high 4;
				heating_range_low -5;
				heating_ramp_high -2;
				heating_ramp_low -2;
				cooling_range_high 5;
				cooling_range_low -4;
				cooling_ramp_high 2;
				cooling_ramp_low 3;
			};
		};
      object house{	
		name house2_112;
		object waterheater {
		name water_112;
		temperature 92;
		tank_setpoint 96;
		location INSIDE;
		water_demand 0.2;
		object controller {
			name heat_control_112;
			market Market_1;
			market_second Market_second;
			bid_mode ON;	
			period 3600;
			average_target current_price_mean_1h;
			standard_deviation_target current_price_stdev_1h;	
			control_mode RAMP;
			target temperature;
			setpoint tank_setpoint;
			demand heating_element_capacity;
			total actual_load;
			load  actual_load;
			slider_setting 0; //set to 0 or ramps will be overwritten
			ramp_low -2;
			ramp_high -2;
			range_low -5;
			range_high 0;
		};	
		};
};
		object house {
			name house_113;
			weather "Yakima WA";
			cooling_setpoint 70;
			heating_setpoint 65;
			air_temperature 72;
			object controller {
				name house_control_113;
				market Market_1;
			    market_second Market_second;
				bid_mode ON;
				control_mode DOUBLE_RAMP;
				resolve_mode DEADBAND;
				// slider_setting_heat 1;
				// slider_setting_cool 1;
				heating_base_setpoint 65;
				cooling_base_setpoint 70;
				period 3600;
				average_target current_price_mean_1h;
				standard_deviation_target current_price_stdev_1h;
				target air_temperature;
				heating_setpoint heating_setpoint;
				heating_demand heating_demand;
				cooling_setpoint cooling_setpoint;
				cooling_demand cooling_demand;
				deadband thermostat_deadband;
				total total_load;
				load hvac_load;
				heating_range_high 4;
				heating_range_low -5;
				heating_ramp_high -2;
				heating_ramp_low -2;
				cooling_range_high 5;
				cooling_range_low -4;
				cooling_ramp_high 2;
				cooling_ramp_low 3;
			};
		};
      object house{	
		name house2_113;
		object waterheater {
		name water_113;
		temperature 92;
		tank_setpoint 96;
		location INSIDE;
		water_demand 0.2;
		object controller {
			name heat_control_113;
			market Market_1;
			market_second Market_second;
			bid_mode ON;	
			period 3600;
			average_target current_price_mean_1h;
			standard_deviation_target current_price_stdev_1h;	
			control_mode RAMP;
			target temperature;
			setpoint tank_setpoint;
			demand heating_element_capacity;
			total actual_load;
			load  actual_load;
			slider_setting 0; //set to 0 or ramps will be overwritten
			ramp_low -2;
			ramp_high -2;
			range_low -5;
			range_high 0;
		};	
		};
};
		object house {
			name house_114;
			weather "Yakima WA";
			cooling_setpoint 70;
			heating_setpoint 65;
			air_temperature 72;
			object controller {
				name house_control_114;
				market Market_1;
			    market_second Market_second;
				bid_mode ON;
				control_mode DOUBLE_RAMP;
				resolve_mode DEADBAND;
				// slider_setting_heat 1;
				// slider_setting_cool 1;
				heating_base_setpoint 65;
				cooling_base_setpoint 70;
				period 3600;
				average_target current_price_mean_1h;
				standard_deviation_target current_price_stdev_1h;
				target air_temperature;
				heating_setpoint heating_setpoint;
				heating_demand heating_demand;
				cooling_setpoint cooling_setpoint;
				cooling_demand cooling_demand;
				deadband thermostat_deadband;
				total total_load;
				load hvac_load;
				heating_range_high 4;
				heating_range_low -5;
				heating_ramp_high -2;
				heating_ramp_low -2;
				cooling_range_high 5;
				cooling_range_low -4;
				cooling_ramp_high 2;
				cooling_ramp_low 3;
			};
		};
      object house{	
		name house2_114;
		object waterheater {
		name water_114;
		temperature 92;
		tank_setpoint 96;
		location INSIDE;
		water_demand 0.2;
		object controller {
			name heat_control_114;
			market Market_1;
			market_second Market_second;
			bid_mode ON;	
			period 3600;
			average_target current_price_mean_1h;
			standard_deviation_target current_price_stdev_1h;	
			control_mode RAMP;
			target temperature;
			setpoint tank_setpoint;
			demand heating_element_capacity;
			total actual_load;
			load  actual_load;
			slider_setting 0; //set to 0 or ramps will be overwritten
			ramp_low -2;
			ramp_high -2;
			range_low -5;
			range_high 0;
		};	
		};
};
		object house {
			name house_115;
			weather "Yakima WA";
			cooling_setpoint 70;
			heating_setpoint 65;
			air_temperature 72;
			object controller {
				name house_control_115;
				market Market_1;
			    market_second Market_second;
				bid_mode ON;
				control_mode DOUBLE_RAMP;
				resolve_mode DEADBAND;
				// slider_setting_heat 1;
				// slider_setting_cool 1;
				heating_base_setpoint 65;
				cooling_base_setpoint 70;
				period 3600;
				average_target current_price_mean_1h;
				standard_deviation_target current_price_stdev_1h;
				target air_temperature;
				heating_setpoint heating_setpoint;
				heating_demand heating_demand;
				cooling_setpoint cooling_setpoint;
				cooling_demand cooling_demand;
				deadband thermostat_deadband;
				total total_load;
				load hvac_load;
				heating_range_high 4;
				heating_range_low -5;
				heating_ramp_high -2;
				heating_ramp_low -2;
				cooling_range_high 5;
				cooling_range_low -4;
				cooling_ramp_high 2;
				cooling_ramp_low 3;
			};
		};
      object house{	
		name house2_115;
		object waterheater {
		name water_115;
		temperature 92;
		tank_setpoint 96;
		location INSIDE;
		water_demand 0.2;
		object controller {
			name heat_control_115;
			market Market_1;
			market_second Market_second;
			bid_mode ON;	
			period 3600;
			average_target current_price_mean_1h;
			standard_deviation_target current_price_stdev_1h;	
			control_mode RAMP;
			target temperature;
			setpoint tank_setpoint;
			demand heating_element_capacity;
			total actual_load;
			load  actual_load;
			slider_setting 0; //set to 0 or ramps will be overwritten
			ramp_low -2;
			ramp_high -2;
			range_low -5;
			range_high 0;
		};	
		};
};
		object house {
			name house_116;
			weather "Yakima WA";
			cooling_setpoint 70;
			heating_setpoint 65;
			air_temperature 72;
			object controller {
				name house_control_116;
				market Market_1;
			    market_second Market_second;
				bid_mode ON;
				control_mode DOUBLE_RAMP;
				resolve_mode DEADBAND;
				// slider_setting_heat 1;
				// slider_setting_cool 1;
				heating_base_setpoint 65;
				cooling_base_setpoint 70;
				period 3600;
				average_target current_price_mean_1h;
				standard_deviation_target current_price_stdev_1h;
				target air_temperature;
				heating_setpoint heating_setpoint;
				heating_demand heating_demand;
				cooling_setpoint cooling_setpoint;
				cooling_demand cooling_demand;
				deadband thermostat_deadband;
				total total_load;
				load hvac_load;
				heating_range_high 4;
				heating_range_low -5;
				heating_ramp_high -2;
				heating_ramp_low -2;
				cooling_range_high 5;
				cooling_range_low -4;
				cooling_ramp_high 2;
				cooling_ramp_low 3;
			};
		};
      object house{	
		name house2_116;
		object waterheater {
		name water_116;
		temperature 92;
		tank_setpoint 96;
		location INSIDE;
		water_demand 0.2;
		object controller {
			name heat_control_116;
			market Market_1;
			market_second Market_second;
			bid_mode ON;	
			period 3600;
			average_target current_price_mean_1h;
			standard_deviation_target current_price_stdev_1h;	
			control_mode RAMP;
			target temperature;
			setpoint tank_setpoint;
			demand heating_element_capacity;
			total actual_load;
			load  actual_load;
			slider_setting 0; //set to 0 or ramps will be overwritten
			ramp_low -2;
			ramp_high -2;
			range_low -5;
			range_high 0;
		};	
		};
};
		object house {
			name house_117;
			weather "Yakima WA";
			cooling_setpoint 70;
			heating_setpoint 65;
			air_temperature 72;
			object controller {
				name house_control_117;
				market Market_1;
			    market_second Market_second;
				bid_mode ON;
				control_mode DOUBLE_RAMP;
				resolve_mode DEADBAND;
				// slider_setting_heat 1;
				// slider_setting_cool 1;
				heating_base_setpoint 65;
				cooling_base_setpoint 70;
				period 3600;
				average_target current_price_mean_1h;
				standard_deviation_target current_price_stdev_1h;
				target air_temperature;
				heating_setpoint heating_setpoint;
				heating_demand heating_demand;
				cooling_setpoint cooling_setpoint;
				cooling_demand cooling_demand;
				deadband thermostat_deadband;
				total total_load;
				load hvac_load;
				heating_range_high 4;
				heating_range_low -5;
				heating_ramp_high -2;
				heating_ramp_low -2;
				cooling_range_high 5;
				cooling_range_low -4;
				cooling_ramp_high 2;
				cooling_ramp_low 3;
			};
		};
      object house{	
		name house2_117;
		object waterheater {
		name water_117;
		temperature 92;
		tank_setpoint 96;
		location INSIDE;
		water_demand 0.2;
		object controller {
			name heat_control_117;
			market Market_1;
			market_second Market_second;
			bid_mode ON;	
			period 3600;
			average_target current_price_mean_1h;
			standard_deviation_target current_price_stdev_1h;	
			control_mode RAMP;
			target temperature;
			setpoint tank_setpoint;
			demand heating_element_capacity;
			total actual_load;
			load  actual_load;
			slider_setting 0; //set to 0 or ramps will be overwritten
			ramp_low -2;
			ramp_high -2;
			range_low -5;
			range_high 0;
		};	
		};
};
		object house {
			name house_118;
			weather "Yakima WA";
			cooling_setpoint 70;
			heating_setpoint 65;
			air_temperature 72;
			object controller {
				name house_control_118;
				market Market_1;
			    market_second Market_second;
				bid_mode ON;
				control_mode DOUBLE_RAMP;
				resolve_mode DEADBAND;
				// slider_setting_heat 1;
				// slider_setting_cool 1;
				heating_base_setpoint 65;
				cooling_base_setpoint 70;
				period 3600;
				average_target current_price_mean_1h;
				standard_deviation_target current_price_stdev_1h;
				target air_temperature;
				heating_setpoint heating_setpoint;
				heating_demand heating_demand;
				cooling_setpoint cooling_setpoint;
				cooling_demand cooling_demand;
				deadband thermostat_deadband;
				total total_load;
				load hvac_load;
				heating_range_high 4;
				heating_range_low -5;
				heating_ramp_high -2;
				heating_ramp_low -2;
				cooling_range_high 5;
				cooling_range_low -4;
				cooling_ramp_high 2;
				cooling_ramp_low 3;
			};
		};
      object house{	
		name house2_118;
		object waterheater {
		name water_118;
		temperature 92;
		tank_setpoint 96;
		location INSIDE;
		water_demand 0.2;
		object controller {
			name heat_control_118;
			market Market_1;
			market_second Market_second;
			bid_mode ON;	
			period 3600;
			average_target current_price_mean_1h;
			standard_deviation_target current_price_stdev_1h;	
			control_mode RAMP;
			target temperature;
			setpoint tank_setpoint;
			demand heating_element_capacity;
			total actual_load;
			load  actual_load;
			slider_setting 0; //set to 0 or ramps will be overwritten
			ramp_low -2;
			ramp_high -2;
			range_low -5;
			range_high 0;
		};	
		};
};
		object house {
			name house_119;
			weather "Yakima WA";
			cooling_setpoint 70;
			heating_setpoint 65;
			air_temperature 72;
			object controller {
				name house_control_119;
				market Market_1;
			    market_second Market_second;
				bid_mode ON;
				control_mode DOUBLE_RAMP;
				resolve_mode DEADBAND;
				// slider_setting_heat 1;
				// slider_setting_cool 1;
				heating_base_setpoint 65;
				cooling_base_setpoint 70;
				period 3600;
				average_target current_price_mean_1h;
				standard_deviation_target current_price_stdev_1h;
				target air_temperature;
				heating_setpoint heating_setpoint;
				heating_demand heating_demand;
				cooling_setpoint cooling_setpoint;
				cooling_demand cooling_demand;
				deadband thermostat_deadband;
				total total_load;
				load hvac_load;
				heating_range_high 4;
				heating_range_low -5;
				heating_ramp_high -2;
				heating_ramp_low -2;
				cooling_range_high 5;
				cooling_range_low -4;
				cooling_ramp_high 2;
				cooling_ramp_low 3;
			};
		};
      object house{	
		name house2_119;
		object waterheater {
		name water_119;
		temperature 92;
		tank_setpoint 96;
		location INSIDE;
		water_demand 0.2;
		object controller {
			name heat_control_119;
			market Market_1;
			market_second Market_second;
			bid_mode ON;	
			period 3600;
			average_target current_price_mean_1h;
			standard_deviation_target current_price_stdev_1h;	
			control_mode RAMP;
			target temperature;
			setpoint tank_setpoint;
			demand heating_element_capacity;
			total actual_load;
			load  actual_load;
			slider_setting 0; //set to 0 or ramps will be overwritten
			ramp_low -2;
			ramp_high -2;
			range_low -5;
			range_high 0;
		};	
		};
};
		object house {
			name house_120;
			weather "Yakima WA";
			cooling_setpoint 70;
			heating_setpoint 65;
			air_temperature 72;
			object controller {
				name house_control_120;
				market Market_1;
			    market_second Market_second;
				bid_mode ON;
				control_mode DOUBLE_RAMP;
				resolve_mode DEADBAND;
				// slider_setting_heat 1;
				// slider_setting_cool 1;
				heating_base_setpoint 65;
				cooling_base_setpoint 70;
				period 3600;
				average_target current_price_mean_1h;
				standard_deviation_target current_price_stdev_1h;
				target air_temperature;
				heating_setpoint heating_setpoint;
				heating_demand heating_demand;
				cooling_setpoint cooling_setpoint;
				cooling_demand cooling_demand;
				deadband thermostat_deadband;
				total total_load;
				load hvac_load;
				heating_range_high 4;
				heating_range_low -5;
				heating_ramp_high -2;
				heating_ramp_low -2;
				cooling_range_high 5;
				cooling_range_low -4;
				cooling_ramp_high 2;
				cooling_ramp_low 3;
			};
		};
      object house{	
		name house2_120;
		object waterheater {
		name water_120;
		temperature 92;
		tank_setpoint 96;
		location INSIDE;
		water_demand 0.2;
		object controller {
			name heat_control_120;
			market Market_1;
			market_second Market_second;
			bid_mode ON;	
			period 3600;
			average_target current_price_mean_1h;
			standard_deviation_target current_price_stdev_1h;	
			control_mode RAMP;
			target temperature;
			setpoint tank_setpoint;
			demand heating_element_capacity;
			total actual_load;
			load  actual_load;
			slider_setting 0; //set to 0 or ramps will be overwritten
			ramp_low -2;
			ramp_high -2;
			range_low -5;
			range_high 0;
		};	
		};
};
		object meter_controller {
					name controller_1;
						market Market_second;
						bid_mode ON;	
						period 3600;
						average_target current_price_mean_1h;
						standard_deviation_target current_price_stdev_1h;	
						control_mode RAMP;
						target price;
						setpoint price;
						demand controller_quantity;
						total measured_power;
						load  measured_power;
						slider_setting 0; //set to 0 or ramps will be overwritten
						ramp_low -2;
						ramp_high -2;
						range_low -5;
						range_high 0;
						object multi_recorder {
							property bid_price,bid_quantity;
							file "check_defaults_output3.csv";
							interval 3600;
							limit 4320;
						};
			};
}
    object triplex_meter {
	phases AS;
	nominal_voltage 120;
	name meter_2;
	market_c Market_second;
	price 50;
		object house {
			name house_21;
			weather "Yakima WA";
			cooling_setpoint 70;
			heating_setpoint 65;
			air_temperature 72;
			object controller {
				name house_control_21;
				market Market_2;
			market_second Market_second;
				bid_mode ON;
				control_mode DOUBLE_RAMP;
				resolve_mode DEADBAND;
				// slider_setting_heat 1;
				// slider_setting_cool 1;
				heating_base_setpoint 65;
				cooling_base_setpoint 70;
				period 3600;
				average_target current_price_mean_1h;
				standard_deviation_target current_price_stdev_1h;
				target air_temperature;
				heating_setpoint heating_setpoint;
				heating_demand heating_demand;
				cooling_setpoint cooling_setpoint;
				cooling_demand cooling_demand;
				deadband thermostat_deadband;
				total total_load;
				load hvac_load;
				heating_range_high 4;
				heating_range_low -5;
				heating_ramp_high -2;
				heating_ramp_low -2;
				cooling_range_high 5;
				cooling_range_low -4;
				cooling_ramp_high 2;
				cooling_ramp_low 3;
			};
		};
		object house {
			name house_22;
			weather "Yakima WA";
			cooling_setpoint 70;
			heating_setpoint 65;
			air_temperature 72;
			object controller {
				name house_control_22;
				market Market_2;
			market_second Market_second;
				bid_mode ON;
				control_mode DOUBLE_RAMP;
				resolve_mode DEADBAND;
				// slider_setting_heat 1;
				// slider_setting_cool 1;
				heating_base_setpoint 65;
				cooling_base_setpoint 70;
				period 3600;
				average_target current_price_mean_1h;
				standard_deviation_target current_price_stdev_1h;
				target air_temperature;
				heating_setpoint heating_setpoint;
				heating_demand heating_demand;
				cooling_setpoint cooling_setpoint;
				cooling_demand cooling_demand;
				deadband thermostat_deadband;
				total total_load;
				load hvac_load;
				heating_range_high 4;
				heating_range_low -5;
				heating_ramp_high -2;
				heating_ramp_low -2;
				cooling_range_high 5;
				cooling_range_low -4;
				cooling_ramp_high 2;
				cooling_ramp_low 3;
			};
		};
		object house {
			name house_23;
			weather "Yakima WA";
			cooling_setpoint 70;
			heating_setpoint 65;
			air_temperature 72;
			object controller {
				name house_control_23;
				market Market_2;
			market_second Market_second;
				bid_mode ON;
				control_mode DOUBLE_RAMP;
				resolve_mode DEADBAND;
				// slider_setting_heat 1;
				// slider_setting_cool 1;
				heating_base_setpoint 65;
				cooling_base_setpoint 70;
				period 3600;
				average_target current_price_mean_1h;
				standard_deviation_target current_price_stdev_1h;
				target air_temperature;
				heating_setpoint heating_setpoint;
				heating_demand heating_demand;
				cooling_setpoint cooling_setpoint;
				cooling_demand cooling_demand;
				deadband thermostat_deadband;
				total total_load;
				load hvac_load;
				heating_range_high 4;
				heating_range_low -5;
				heating_ramp_high -2;
				heating_ramp_low -2;
				cooling_range_high 5;
				cooling_range_low -4;
				cooling_ramp_high 2;
				cooling_ramp_low 3;
			};
		};
		object house {
			name house_24;
			weather "Yakima WA";
			cooling_setpoint 70;
			heating_setpoint 65;
			air_temperature 72;
			object controller {
				name house_control_24;
				market Market_2;
			market_second Market_second;
				bid_mode ON;
				control_mode DOUBLE_RAMP;
				resolve_mode DEADBAND;
				// slider_setting_heat 1;
				// slider_setting_cool 1;
				heating_base_setpoint 65;
				cooling_base_setpoint 70;
				period 3600;
				average_target current_price_mean_1h;
				standard_deviation_target current_price_stdev_1h;
				target air_temperature;
				heating_setpoint heating_setpoint;
				heating_demand heating_demand;
				cooling_setpoint cooling_setpoint;
				cooling_demand cooling_demand;
				deadband thermostat_deadband;
				total total_load;
				load hvac_load;
				heating_range_high 4;
				heating_range_low -5;
				heating_ramp_high -2;
				heating_ramp_low -2;
				cooling_range_high 5;
				cooling_range_low -4;
				cooling_ramp_high 2;
				cooling_ramp_low 3;
			};
		};
		object house {
			name house_25;
			weather "Yakima WA";
			cooling_setpoint 70;
			heating_setpoint 65;
			air_temperature 72;
			object controller {
				name house_control_25;
				market Market_2;
			market_second Market_second;
				bid_mode ON;
				control_mode DOUBLE_RAMP;
				resolve_mode DEADBAND;
				// slider_setting_heat 1;
				// slider_setting_cool 1;
				heating_base_setpoint 65;
				cooling_base_setpoint 70;
				period 3600;
				average_target current_price_mean_1h;
				standard_deviation_target current_price_stdev_1h;
				target air_temperature;
				heating_setpoint heating_setpoint;
				heating_demand heating_demand;
				cooling_setpoint cooling_setpoint;
				cooling_demand cooling_demand;
				deadband thermostat_deadband;
				total total_load;
				load hvac_load;
				heating_range_high 4;
				heating_range_low -5;
				heating_ramp_high -2;
				heating_ramp_low -2;
				cooling_range_high 5;
				cooling_range_low -4;
				cooling_ramp_high 2;
				cooling_ramp_low 3;
			};
		};
		object house {
			name house_26;
			weather "Yakima WA";
			cooling_setpoint 70;
			heating_setpoint 65;
			air_temperature 72;
			object controller {
				name house_control_26;
				market Market_2;
			market_second Market_second;
				bid_mode ON;
				control_mode DOUBLE_RAMP;
				resolve_mode DEADBAND;
				// slider_setting_heat 1;
				// slider_setting_cool 1;
				heating_base_setpoint 65;
				cooling_base_setpoint 70;
				period 3600;
				average_target current_price_mean_1h;
				standard_deviation_target current_price_stdev_1h;
				target air_temperature;
				heating_setpoint heating_setpoint;
				heating_demand heating_demand;
				cooling_setpoint cooling_setpoint;
				cooling_demand cooling_demand;
				deadband thermostat_deadband;
				total total_load;
				load hvac_load;
				heating_range_high 4;
				heating_range_low -5;
				heating_ramp_high -2;
				heating_ramp_low -2;
				cooling_range_high 5;
				cooling_range_low -4;
				cooling_ramp_high 2;
				cooling_ramp_low 3;
			};
		};
		object house {
			name house_27;
			weather "Yakima WA";
			cooling_setpoint 70;
			heating_setpoint 65;
			air_temperature 72;
			object controller {
				name house_control_27;
				market Market_2;
			market_second Market_second;
				bid_mode ON;
				control_mode DOUBLE_RAMP;
				resolve_mode DEADBAND;
				// slider_setting_heat 1;
				// slider_setting_cool 1;
				heating_base_setpoint 65;
				cooling_base_setpoint 70;
				period 3600;
				average_target current_price_mean_1h;
				standard_deviation_target current_price_stdev_1h;
				target air_temperature;
				heating_setpoint heating_setpoint;
				heating_demand heating_demand;
				cooling_setpoint cooling_setpoint;
				cooling_demand cooling_demand;
				deadband thermostat_deadband;
				total total_load;
				load hvac_load;
				heating_range_high 4;
				heating_range_low -5;
				heating_ramp_high -2;
				heating_ramp_low -2;
				cooling_range_high 5;
				cooling_range_low -4;
				cooling_ramp_high 2;
				cooling_ramp_low 3;
			};
		};
		object house {
			name house_28;
			weather "Yakima WA";
			cooling_setpoint 70;
			heating_setpoint 65;
			air_temperature 72;
			object controller {
				name house_control_28;
				market Market_2;
			market_second Market_second;
				bid_mode ON;
				control_mode DOUBLE_RAMP;
				resolve_mode DEADBAND;
				// slider_setting_heat 1;
				// slider_setting_cool 1;
				heating_base_setpoint 65;
				cooling_base_setpoint 70;
				period 3600;
				average_target current_price_mean_1h;
				standard_deviation_target current_price_stdev_1h;
				target air_temperature;
				heating_setpoint heating_setpoint;
				heating_demand heating_demand;
				cooling_setpoint cooling_setpoint;
				cooling_demand cooling_demand;
				deadband thermostat_deadband;
				total total_load;
				load hvac_load;
				heating_range_high 4;
				heating_range_low -5;
				heating_ramp_high -2;
				heating_ramp_low -2;
				cooling_range_high 5;
				cooling_range_low -4;
				cooling_ramp_high 2;
				cooling_ramp_low 3;
			};
		};
		object house {
			name house_29;
			weather "Yakima WA";
			cooling_setpoint 70;
			heating_setpoint 65;
			air_temperature 72;
			object controller {
				name house_control_29;
				market Market_2;
			market_second Market_second;
				bid_mode ON;
				control_mode DOUBLE_RAMP;
				resolve_mode DEADBAND;
				// slider_setting_heat 1;
				// slider_setting_cool 1;
				heating_base_setpoint 65;
				cooling_base_setpoint 70;
				period 3600;
				average_target current_price_mean_1h;
				standard_deviation_target current_price_stdev_1h;
				target air_temperature;
				heating_setpoint heating_setpoint;
				heating_demand heating_demand;
				cooling_setpoint cooling_setpoint;
				cooling_demand cooling_demand;
				deadband thermostat_deadband;
				total total_load;
				load hvac_load;
				heating_range_high 4;
				heating_range_low -5;
				heating_ramp_high -2;
				heating_ramp_low -2;
				cooling_range_high 5;
				cooling_range_low -4;
				cooling_ramp_high 2;
				cooling_ramp_low 3;
			};
		};
		object house {
			name house_210;
			weather "Yakima WA";
			cooling_setpoint 70;
			heating_setpoint 65;
			air_temperature 72;
			object controller {
				name house_control_210;
				market Market_2;
			market_second Market_second;
				bid_mode ON;
				control_mode DOUBLE_RAMP;
				resolve_mode DEADBAND;
				// slider_setting_heat 1;
				// slider_setting_cool 1;
				heating_base_setpoint 65;
				cooling_base_setpoint 70;
				period 3600;
				average_target current_price_mean_1h;
				standard_deviation_target current_price_stdev_1h;
				target air_temperature;
				heating_setpoint heating_setpoint;
				heating_demand heating_demand;
				cooling_setpoint cooling_setpoint;
				cooling_demand cooling_demand;
				deadband thermostat_deadband;
				total total_load;
				load hvac_load;
				heating_range_high 4;
				heating_range_low -5;
				heating_ramp_high -2;
				heating_ramp_low -2;
				cooling_range_high 5;
				cooling_range_low -4;
				cooling_ramp_high 2;
				cooling_ramp_low 3;
			};
		};
		object house {
			name house_211;
			weather "Yakima WA";
			cooling_setpoint 70;
			heating_setpoint 65;
			air_temperature 72;
			object controller {
				name house_control_211;
				market Market_2;
			market_second Market_second;
				bid_mode ON;
				control_mode DOUBLE_RAMP;
				resolve_mode DEADBAND;
				// slider_setting_heat 1;
				// slider_setting_cool 1;
				heating_base_setpoint 65;
				cooling_base_setpoint 70;
				period 3600;
				average_target current_price_mean_1h;
				standard_deviation_target current_price_stdev_1h;
				target air_temperature;
				heating_setpoint heating_setpoint;
				heating_demand heating_demand;
				cooling_setpoint cooling_setpoint;
				cooling_demand cooling_demand;
				deadband thermostat_deadband;
				total total_load;
				load hvac_load;
				heating_range_high 4;
				heating_range_low -5;
				heating_ramp_high -2;
				heating_ramp_low -2;
				cooling_range_high 5;
				cooling_range_low -4;
				cooling_ramp_high 2;
				cooling_ramp_low 3;
			};
		};
		object house {
			name house_212;
			weather "Yakima WA";
			cooling_setpoint 70;
			heating_setpoint 65;
			air_temperature 72;
			object controller {
				name house_control_212;
				market Market_2;
			market_second Market_second;
				bid_mode ON;
				control_mode DOUBLE_RAMP;
				resolve_mode DEADBAND;
				// slider_setting_heat 1;
				// slider_setting_cool 1;
				heating_base_setpoint 65;
				cooling_base_setpoint 70;
				period 3600;
				average_target current_price_mean_1h;
				standard_deviation_target current_price_stdev_1h;
				target air_temperature;
				heating_setpoint heating_setpoint;
				heating_demand heating_demand;
				cooling_setpoint cooling_setpoint;
				cooling_demand cooling_demand;
				deadband thermostat_deadband;
				total total_load;
				load hvac_load;
				heating_range_high 4;
				heating_range_low -5;
				heating_ramp_high -2;
				heating_ramp_low -2;
				cooling_range_high 5;
				cooling_range_low -4;
				cooling_ramp_high 2;
				cooling_ramp_low 3;
			};
		};
		object house {
			name house_213;
			weather "Yakima WA";
			cooling_setpoint 70;
			heating_setpoint 65;
			air_temperature 72;
			object controller {
				name house_control_213;
				market Market_2;
			market_second Market_second;
				bid_mode ON;
				control_mode DOUBLE_RAMP;
				resolve_mode DEADBAND;
				// slider_setting_heat 1;
				// slider_setting_cool 1;
				heating_base_setpoint 65;
				cooling_base_setpoint 70;
				period 3600;
				average_target current_price_mean_1h;
				standard_deviation_target current_price_stdev_1h;
				target air_temperature;
				heating_setpoint heating_setpoint;
				heating_demand heating_demand;
				cooling_setpoint cooling_setpoint;
				cooling_demand cooling_demand;
				deadband thermostat_deadband;
				total total_load;
				load hvac_load;
				heating_range_high 4;
				heating_range_low -5;
				heating_ramp_high -2;
				heating_ramp_low -2;
				cooling_range_high 5;
				cooling_range_low -4;
				cooling_ramp_high 2;
				cooling_ramp_low 3;
			};
		};
		object house {
			name house_214;
			weather "Yakima WA";
			cooling_setpoint 70;
			heating_setpoint 65;
			air_temperature 72;
			object controller {
				name house_control_214;
				market Market_2;
			market_second Market_second;
				bid_mode ON;
				control_mode DOUBLE_RAMP;
				resolve_mode DEADBAND;
				// slider_setting_heat 1;
				// slider_setting_cool 1;
				heating_base_setpoint 65;
				cooling_base_setpoint 70;
				period 3600;
				average_target current_price_mean_1h;
				standard_deviation_target current_price_stdev_1h;
				target air_temperature;
				heating_setpoint heating_setpoint;
				heating_demand heating_demand;
				cooling_setpoint cooling_setpoint;
				cooling_demand cooling_demand;
				deadband thermostat_deadband;
				total total_load;
				load hvac_load;
				heating_range_high 4;
				heating_range_low -5;
				heating_ramp_high -2;
				heating_ramp_low -2;
				cooling_range_high 5;
				cooling_range_low -4;
				cooling_ramp_high 2;
				cooling_ramp_low 3;
			};
		};
		object house {
			name house_215;
			weather "Yakima WA";
			cooling_setpoint 70;
			heating_setpoint 65;
			air_temperature 72;
			object controller {
				name house_control_215;
				market Market_2;
			market_second Market_second;
				bid_mode ON;
				control_mode DOUBLE_RAMP;
				resolve_mode DEADBAND;
				// slider_setting_heat 1;
				// slider_setting_cool 1;
				heating_base_setpoint 65;
				cooling_base_setpoint 70;
				period 3600;
				average_target current_price_mean_1h;
				standard_deviation_target current_price_stdev_1h;
				target air_temperature;
				heating_setpoint heating_setpoint;
				heating_demand heating_demand;
				cooling_setpoint cooling_setpoint;
				cooling_demand cooling_demand;
				deadband thermostat_deadband;
				total total_load;
				load hvac_load;
				heating_range_high 4;
				heating_range_low -5;
				heating_ramp_high -2;
				heating_ramp_low -2;
				cooling_range_high 5;
				cooling_range_low -4;
				cooling_ramp_high 2;
				cooling_ramp_low 3;
			};
		};
		object house {
			name house_216;
			weather "Yakima WA";
			cooling_setpoint 70;
			heating_setpoint 65;
			air_temperature 72;
			object controller {
				name house_control_216;
				market Market_2;
			market_second Market_second;
				bid_mode ON;
				control_mode DOUBLE_RAMP;
				resolve_mode DEADBAND;
				// slider_setting_heat 1;
				// slider_setting_cool 1;
				heating_base_setpoint 65;
				cooling_base_setpoint 70;
				period 3600;
				average_target current_price_mean_1h;
				standard_deviation_target current_price_stdev_1h;
				target air_temperature;
				heating_setpoint heating_setpoint;
				heating_demand heating_demand;
				cooling_setpoint cooling_setpoint;
				cooling_demand cooling_demand;
				deadband thermostat_deadband;
				total total_load;
				load hvac_load;
				heating_range_high 4;
				heating_range_low -5;
				heating_ramp_high -2;
				heating_ramp_low -2;
				cooling_range_high 5;
				cooling_range_low -4;
				cooling_ramp_high 2;
				cooling_ramp_low 3;
			};
		};
		object house {
			name house_217;
			weather "Yakima WA";
			cooling_setpoint 70;
			heating_setpoint 65;
			air_temperature 72;
			object controller {
				name house_control_217;
				market Market_2;
			market_second Market_second;
				bid_mode ON;
				control_mode DOUBLE_RAMP;
				resolve_mode DEADBAND;
				// slider_setting_heat 1;
				// slider_setting_cool 1;
				heating_base_setpoint 65;
				cooling_base_setpoint 70;
				period 3600;
				average_target current_price_mean_1h;
				standard_deviation_target current_price_stdev_1h;
				target air_temperature;
				heating_setpoint heating_setpoint;
				heating_demand heating_demand;
				cooling_setpoint cooling_setpoint;
				cooling_demand cooling_demand;
				deadband thermostat_deadband;
				total total_load;
				load hvac_load;
				heating_range_high 4;
				heating_range_low -5;
				heating_ramp_high -2;
				heating_ramp_low -2;
				cooling_range_high 5;
				cooling_range_low -4;
				cooling_ramp_high 2;
				cooling_ramp_low 3;
			};
		};
		object house {
			name house_218;
			weather "Yakima WA";
			cooling_setpoint 70;
			heating_setpoint 65;
			air_temperature 72;
			object controller {
				name house_control_218;
				market Market_2;
			market_second Market_second;
				bid_mode ON;
				control_mode DOUBLE_RAMP;
				resolve_mode DEADBAND;
				// slider_setting_heat 1;
				// slider_setting_cool 1;
				heating_base_setpoint 65;
				cooling_base_setpoint 70;
				period 3600;
				average_target current_price_mean_1h;
				standard_deviation_target current_price_stdev_1h;
				target air_temperature;
				heating_setpoint heating_setpoint;
				heating_demand heating_demand;
				cooling_setpoint cooling_setpoint;
				cooling_demand cooling_demand;
...